data_image0
_chemical_formula_structural       Ba2Sb
_chemical_formula_sum              "Ba2 Sb1"
_cell_length_a       4.953362
_cell_length_b       4.953361717554049
_cell_length_c       22.747784
_cell_angle_alpha    90.0
_cell_angle_beta     90.0
_cell_angle_gamma    120.0000018862416

_space_group_name_H-M_alt    "P 1"
_space_group_IT_number       1

loop_
  _space_group_symop_operation_xyz
  'x, y, z'

loop_
  _atom_site_type_symbol
  _atom_site_label
  _atom_site_symmetry_multiplicity
  _atom_site_fract_x
  _atom_site_fract_y
  _atom_site_fract_z
  _atom_site_occupancy
  Ba  Ba1       1.0  0.666667  0.333333  0.839215  1.0000
  Ba  Ba2       1.0  0.333333  0.666667  0.00316  1.0000
  Sb  Sb1       1.0  0.0  0.0  0.921188  1.0000
