data_image0
_chemical_formula_structural       Tl6S6
_chemical_formula_sum              "Tl6 S6"
_cell_length_a       4.008652948077889
_cell_length_b       12.402249826645358
_cell_length_c       25.602778862291558
_cell_angle_alpha    81.7147302392572
_cell_angle_beta     82.99887629399836
_cell_angle_gamma    80.76298740904164

_space_group_name_H-M_alt    "P 1"
_space_group_IT_number       1

loop_
  _space_group_symop_operation_xyz
  'x, y, z'

loop_
  _atom_site_type_symbol
  _atom_site_label
  _atom_site_symmetry_multiplicity
  _atom_site_fract_x
  _atom_site_fract_y
  _atom_site_fract_z
  _atom_site_occupancy
  Tl  Tl1       1.0  0.28480274999999994  0.84760972  0.36823652  1.0000
  Tl  Tl2       1.0  0.71519725  0.15239027999999996  0.26237248  1.0000
  Tl  Tl3       1.0  0.34486795  0.8981473899999999  0.25445494  1.0000
  Tl  Tl4       1.0  0.6551320499999999  0.10185260999999998  0.37615405999999996  1.0000
  Tl  Tl5       1.0  0.9546212100000001  0.6160573599999999  0.29759522  1.0000
  Tl  Tl6       1.0  0.04537879000000003  0.38394263999999995  0.33301378  1.0000
  S   S1        1.0  0.46784592999999997  0.68852744  0.23475115999999996  1.0000
  S   S2        1.0  0.53215407  0.31147255999999995  0.39585784  1.0000
  S   S3        1.0  0.16181344  0.0007717099999999999  0.43148818999999994  1.0000
  S   S4        1.0  0.8381865599999999  0.99922829  0.19912081  1.0000
  S   S5        1.0  0.8361187699999999  0.71049389  0.38927972999999993  1.0000
  S   S6        1.0  0.16388123000000002  0.2895061099999999  0.24132927  1.0000
