data_image0
_chemical_formula_structural       Mo2Cl4
_chemical_formula_sum              "Mo2 Cl4"
_cell_length_a       3.166735
_cell_length_b       5.4819182815347585
_cell_length_c       21.43941941646828
_cell_angle_alpha    101.00266911597132
_cell_angle_beta     90.0
_cell_angle_gamma    90.0

_space_group_name_H-M_alt    "P 1"
_space_group_IT_number       1

loop_
  _space_group_symop_operation_xyz
  'x, y, z'

loop_
  _atom_site_type_symbol
  _atom_site_label
  _atom_site_symmetry_multiplicity
  _atom_site_fract_x
  _atom_site_fract_y
  _atom_site_fract_z
  _atom_site_occupancy
  Mo  Mo1       1.0  0.5  0.5  0.147359  1.0000
  Mo  Mo2       1.0  0.0  0.0  0.147359  1.0000
  Cl  Cl1       1.0  0.999514  0.393677  0.228814  1.0000
  Cl  Cl2       1.0  0.49951399999999996  0.106323  0.06590399999999999  1.0000
  Cl  Cl3       1.0  0.500486  0.893677  0.228814  1.0000
  Cl  Cl4       1.0  0.000486  0.606323  0.06590399999999999  1.0000
