data_image0
_chemical_formula_structural       TcTe2
_chemical_formula_sum              "Tc1 Te2"
_cell_length_a       3.567633
_cell_length_b       3.56763428110744
_cell_length_c       22.641327
_cell_angle_alpha    90.0
_cell_angle_beta     90.0
_cell_angle_gamma    119.99999739352232

_space_group_name_H-M_alt    "P 1"
_space_group_IT_number       1

loop_
  _space_group_symop_operation_xyz
  'x, y, z'

loop_
  _atom_site_type_symbol
  _atom_site_label
  _atom_site_symmetry_multiplicity
  _atom_site_fract_x
  _atom_site_fract_y
  _atom_site_fract_z
  _atom_site_occupancy
  Tc  Tc1       1.0  0.0  0.0  0.0  1.0000
  Te  Te1       1.0  0.666667  0.33333299999999993  0.07893399999999999  1.0000
  Te  Te2       1.0  0.33333299999999993  0.6666669999999999  0.9210659999999999  1.0000
