data_image0
_chemical_formula_structural       AuBr
_chemical_formula_sum              "Au1 Br1"
_cell_length_a       4.478867
_cell_length_b       4.478867594529336
_cell_length_c       20.19552
_cell_angle_alpha    90.0
_cell_angle_beta     90.0
_cell_angle_gamma    120.00000299469932

_space_group_name_H-M_alt    "P 1"
_space_group_IT_number       1

loop_
  _space_group_symop_operation_xyz
  'x, y, z'

loop_
  _atom_site_type_symbol
  _atom_site_label
  _atom_site_symmetry_multiplicity
  _atom_site_fract_x
  _atom_site_fract_y
  _atom_site_fract_z
  _atom_site_occupancy
  Au  Au1       1.0  0.0  0.0  0.190597  1.0000
  Br  Br1       1.0  0.666667  0.333333  0.184872  1.0000
