data_image0
_chemical_formula_structural       SiBr4
_chemical_formula_sum              "Si1 Br4"
_cell_length_a       5.140671
_cell_length_b       5.140671
_cell_length_c       23.993582
_cell_angle_alpha    90.0
_cell_angle_beta     90.0
_cell_angle_gamma    90.0

_space_group_name_H-M_alt    "P 1"
_space_group_IT_number       1

loop_
  _space_group_symop_operation_xyz
  'x, y, z'

loop_
  _atom_site_type_symbol
  _atom_site_label
  _atom_site_symmetry_multiplicity
  _atom_site_fract_x
  _atom_site_fract_y
  _atom_site_fract_z
  _atom_site_occupancy
  Si  Si1       1.0  0.0  0.0  0.0  1.0000
  Br  Br1       1.0  0.5  0.0  0.0  1.0000
  Br  Br2       1.0  0.0  0.5  0.0  1.0000
  Br  Br3       1.0  0.0  0.0  0.905805  1.0000
  Br  Br4       1.0  0.0  0.0  0.094195  1.0000
